OPT_V10/Two_days_first_run/powerflow_results_t12.txt
Pandapower Network Debug Info
==================================================

BUS:
       vm_pu  va_degree      p_mw    q_mvar
0   0.998925   0.411189 -0.002052  0.001189
1   0.998341   0.659894 -0.001983  0.002160
2   0.997197   0.847859 -0.000970  0.002854
3   0.997418   0.609073 -0.001104  0.004293
4   0.993430   0.476537  0.000119  0.005510
5   0.997529   0.354953  0.000225  0.005241
6   0.998714   0.495151 -0.002205  0.001081
7   1.000214   0.132271 -0.001941  0.001790
8   0.998859   0.095988 -0.001090  0.003016
9   0.999875   0.003540  0.004614  0.011221
10  0.999879   0.003389  0.005380  0.009608
11  0.999892   0.003024  0.010050  0.010368
12  0.999844   0.004386  0.008261  0.005038
13  0.999821   0.004702  0.009932  0.008460
14  0.999829   0.004682  0.007778  0.013899
15  0.999954   0.001790  0.000000  0.000000
16  0.999954   0.001796  0.000000  0.000000
17  0.999848   0.004414  0.000000  0.000000
18  0.999848   0.004423  0.000000  0.000000
19  1.000000   0.000000 -0.014070 -0.046784
20  1.000000   0.000006  0.000000  0.000000
21  1.000000   0.000000 -0.021202 -0.049113
22  1.000000   0.000007  0.000000  0.000000
--------------------------------------------------

LINE:
    p_from_mw  q_from_mvar   p_to_mw  q_to_mvar         pl_mw       ql_mvar  i_from_ka   i_to_ka      i_ka  vm_from_pu  va_from_degree  vm_to_pu  va_to_degree  loading_percent
0    0.014060     0.042784 -0.014058  -0.042782  1.983774e-06  1.546781e-06   0.001733  0.001733  0.001733    1.000000        0.000006  0.999954      0.001790         0.753646
1    0.021192     0.045113 -0.021185  -0.045108  6.682381e-06  5.210363e-06   0.001918  0.001918  0.001918    1.000000        0.000007  0.999848      0.004414         0.834105
2    0.020047     0.031200 -0.020045  -0.031198  1.902622e-06  1.483506e-06   0.001427  0.001427  0.001427    0.999954        0.001790  0.999892      0.003024         0.620640
3    0.008261     0.005038 -0.008261  -0.005038  3.238938e-08  2.525453e-08   0.000372  0.000372  0.000372    0.999848        0.004414  0.999844      0.004386         0.161955
4    0.017710     0.022359 -0.017710  -0.022359  4.449921e-07  3.469677e-07   0.001098  0.001098  0.001098    0.999848        0.004414  0.999829      0.004682         0.477403
5   -0.005999     0.010582  0.006068  -0.010528  6.921431e-05  5.396753e-05   0.017558  0.017558  0.017558    0.999954        0.001796  0.998925      0.411189         7.634072
6   -0.001940     0.006352  0.001974  -0.006326  3.423600e-05  2.669437e-05   0.009588  0.009588  0.009588    0.999848        0.004423  0.997529      0.354953         4.168822
7   -0.001936     0.001793  0.001941  -0.001790  4.706645e-06  3.669849e-06   0.003810  0.003810  0.003810    0.999848        0.004423  1.000214      0.132271         1.656381
8   -0.000920     0.008565  0.000933  -0.008555  1.276322e-05  9.951689e-06   0.012436  0.012436  0.012436    0.999848        0.004423  0.998859      0.095988         5.406875
9    0.004614     0.011221 -0.004614  -0.011221  5.091915e-08  3.970250e-08   0.000467  0.000467  0.000467    0.999879        0.003389  0.999875      0.003540         0.203065
10   0.009995     0.020830 -0.009994  -0.020830  2.611083e-07  2.035904e-07   0.000889  0.000889  0.000889    0.999892        0.003024  0.999879      0.003389         0.386675
11   0.009932     0.008460 -0.009932  -0.008460  8.327163e-08  6.492826e-08   0.000502  0.000502  0.000502    0.999829        0.004682  0.999821      0.004702         0.218366
12   0.002945    -0.005021 -0.002925   0.005036  2.011092e-05  1.568081e-05   0.008415  0.008415  0.008415    0.998341        0.659894  0.998925      0.411189         3.658847
13   0.001104    -0.004293 -0.001091   0.004303  1.318634e-05  1.028160e-05   0.006414  0.006414  0.006414    0.997418        0.609073  0.998925      0.411189         2.788868
14   0.000970    -0.002854 -0.000962   0.002861  8.266284e-06  6.445358e-06   0.004363  0.004363  0.004363    0.997197        0.847859  0.998341      0.659894         1.897055
15   0.000157     0.005539 -0.000119  -0.005510  3.744334e-05  2.919519e-05   0.008007  0.008007  0.008007    0.998859        0.095988  0.993430      0.476537         3.481268
16   0.002205    -0.001081 -0.002200   0.001085  5.263452e-06  4.104000e-06   0.003549  0.003549  0.003549    0.998714        0.495151  0.997529      0.354953         1.543022
--------------------------------------------------

TRAFO:
    p_hv_mw  q_hv_mvar   p_lv_mw  q_lv_mvar    pl_mw  ql_mvar   i_hv_ka   i_lv_ka  vm_hv_pu  va_hv_degree  vm_lv_pu  va_lv_degree  loading_percent
0 -0.005989   0.011582  0.005999  -0.010582  0.00001    0.001  0.000502  0.017558  0.999954      0.001790  0.999954      0.001796         0.130394
1 -0.004786   0.017711  0.004796  -0.016711  0.00001    0.001  0.000706  0.025098  0.999848      0.004414  0.999848      0.004423         0.183487
2  0.014070   0.046784 -0.014060  -0.042784  0.00001    0.004  0.000403  0.001733  1.000000      0.000000  1.000000      0.000006         0.122134
3  0.021202   0.049113 -0.021192  -0.045113  0.00001    0.004  0.000441  0.001918  1.000000      0.000000  1.000000      0.000007         0.133735
--------------------------------------------------
